LAMMPS (12 Apr 2013)
# 3d Lennard-Jones melt

units		lj
atom_style	atomic

variable 	t equal 0.71

lattice		fcc 0.8442
Lattice spacing in x,y,z = 1.6796 1.6796 1.6796
region		box block 0 10 0 10 0 10
create_box	1 box
Created orthogonal box = (0 0 0) to (16.796 16.796 16.796)
create_atoms	1 box
Created 4000 atoms
mass		1 1.0

velocity	all create $t 87287
velocity	all create 0.70999999999999996447 87287

pair_style	lj/cut 2.5
pair_coeff	1 1 1.0 1.0 2.5

fix		1 all nvt temp $t $t 1
fix		1 all nvt temp 0.70999999999999996447 $t 1
fix		1 all nvt temp 0.70999999999999996447 0.70999999999999996447 1
dump		1 all xyz 100 dump.lammps
thermo		100

run		10000
Step Temp E_pair E_mol TotEng Press
0         0.71   -6.7733681            0   -5.7086343   -5.6360851
Averages over the last 51 of 101 rows, steps 5000 to 10000:
Temp E_pair E_mol TotEng Press
0.711093 -5.65208 0 -4.58571 0.834283
Loop time of 39.3418 on 1 procs for 10000 steps with 4000 atoms

Pair  time (%) = 28.6908 (72.9271)
Neigh time (%) = 8.40886 (21.3738)
Comm  time (%) = 0.596034 (1.51501)
Outpt time (%) = 0.451403 (1.14739)
Other time (%) = 1.19469 (3.0367)
